[TITLE]
;;Project Title/Notes

[OPTIONS]
;;Option             Value
FLOW_UNITS           CMS
INFILTRATION         HORTON
FLOW_ROUTING         DYNWAVE
LINK_OFFSETS         DEPTH
MIN_SLOPE            0
ALLOW_PONDING        NO
SKIP_STEADY_STATE    NO

START_DATE           01/01/2009
START_TIME           00:00:00
REPORT_START_DATE    01/01/2009
REPORT_START_TIME    00:00:00
END_DATE             04/13/2009
END_TIME             23:59:59
SWEEP_START          01/01
SWEEP_END            12/31
DRY_DAYS             5
REPORT_STEP          08:00:00
WET_STEP             00:20:00
DRY_STEP             02:00:00
ROUTING_STEP         00:10:00 
RULE_STEP            00:00:00

INERTIAL_DAMPING     PARTIAL
NORMAL_FLOW_LIMITED  BOTH
FORCE_MAIN_EQUATION  H-W
VARIABLE_STEP        0.75
LENGTHENING_STEP     0
MIN_SURFAREA         1.167
MAX_TRIALS           8
HEAD_TOLERANCE       0.0015
SYS_FLOW_TOL         5
LAT_FLOW_TOL         5
MINIMUM_STEP         0.5
THREADS              1

[EVAPORATION]
;;Data Source    Parameters
;;-------------- ----------------
MONTHLY          0.317921 0.5829 1.2318 2.3111 3.5948 4.5372 5.699403 5.4817 3.7000 1.9743 0.7924 0.3567
DRY_ONLY         NO

[RAINGAGES]
;;Name           Format    Interval SCF      Source    
;;-------------- --------- ------ ------ ----------
swmm_wet	VOLUME	1:00	1.0	FILE	"C:\Users\jstelman\Git\chelsvig_urban_pesticides\probabilistic_python\weather\swmm_wet.txt"	swmm_wet	MM

[SUBCATCHMENTS]
;;Name           Rain Gage        Outlet           Area     %Imperv  Width    %Slope   CurbLen  SnowPack        
;;-------------- ---------------- ---------------- -------- -------- -------- -------- -------- ----------------
S1               swmm_wet         j1               57.8000  8.31     183.46   11.64    0                        
S2               swmm_wet         j3               40.6289  17.43    139.91   11.61    0                        
S3               swmm_wet         j5               227.6490 15.40    320.15   14.40    0                        
S4               swmm_wet         j4               10.2923  16.47    71.29    11.47    0                        
S5               swmm_wet         j6               158.7419 25.49    326.50   14.60    0                        
S6               swmm_wet         j8               30.2337  17.16    94.13    8.04     0                        
S7               swmm_wet         j8               53.5458  44.33    189.30   7.17     0                        
S8               swmm_wet         j9               43.0476  32.77    152.64   14.68    0                        
S9               swmm_wet         j10              56.2647  36.79    155.83   7.08     0                        
S10              swmm_wet         j12              72.3722  18.55    136.86   7.90     0                        
S11              swmm_wet         j14              39.4796  27.18    138.67   5.25     0                        
S12              swmm_wet         j13              31.7947  28.57    112.08   5.65     0                        
S13              swmm_wet         j16              87.9050  8.25     241.55   2.19     0                        
S14              swmm_wet         j17              280.1313 28.87    301.77   3.33     0                        
S15              swmm_wet         j21              40.5260  41.49    117.53   12.27    0                        
S16              swmm_wet         j19              39.5054  0.03     180.04   2.13     0                        
S17              swmm_wet         j18              5.5064   0.40     61.74    2.83     0                        
S18              swmm_wet         j22              60.9305  38.10    170.97   14.39    0                        
S19              swmm_wet         j23              25.9281  56.95    90.34    5.60     0                        
S20              swmm_wet         j24              92.8453  38.28    305.61   9.73     0                        
S21              swmm_wet         j197             104.4928 29.95    213.58   6.02     0                        
S22              swmm_wet         j25              53.7259  40.53    149.17   3.31     0                        
S23              swmm_wet         j26              23.6466  2.09     93.43    3.55     0                        
S24              swmm_wet         j28              44.3771  24.00    126.86   5.44     0                        
S25              swmm_wet         j27              23.1835  38.07    71.25    8.65     0                        
S26              swmm_wet         j29              56.0074  30.97    154.90   2.66     0                        
S27              swmm_wet         j30              46.8043  41.66    138.64   5.62     0                        
S28              swmm_wet         j31              135.3097 37.39    248.38   3.42     0                        
S29              swmm_wet         j32              154.5049 41.72    242.79   5.26     0                        
S30              swmm_wet         j31              35.8344  36.66    102.59   2.90     0                        
S31              swmm_wet         j33              26.8544  22.67    138.20   2.99     0                        
S32              swmm_wet         j34              48.1595  47.65    124.33   2.54     0                        
S33              swmm_wet         j35              57.5169  36.64    143.93   7.04     0                        
S34              swmm_wet         j37              51.7446  42.54    176.75   3.59     0                        
S35              swmm_wet         j39              50.3809  17.07    151.64   2.43     0                        
S36              swmm_wet         j41              6.6471   3.74     51.01    2.80     0                        
S37              swmm_wet         j42              66.2397  25.04    148.69   3.32     0                        
S38              swmm_wet         j44              74.9281  21.35    189.22   2.80     0                        
S39              swmm_wet         j46              8.4997   25.03    83.21    2.74     0                        
S40              swmm_wet         j48              36.0574  41.50    137.84   2.84     0                        
S41              swmm_wet         j51              21.0993  35.17    122.42   2.34     0                        
S42              swmm_wet         j55              79.0193  36.80    251.42   2.82     0                        
S43              swmm_wet         j31              69.2587  42.23    168.77   5.85     0                        
S44              swmm_wet         j57              80.0571  58.15    174.60   3.34     0                        
S45              swmm_wet         j58              2.6503   29.07    39.78    4.41     0                        
S46              swmm_wet         j60              24.0068  29.06    104.19   4.76     0                        
S47              swmm_wet         j61              4.9489   7.41     59.05    4.12     0                        
S48              swmm_wet         j62              74.4821  53.18    186.00   3.64     0                        
S49              swmm_wet         j64              90.2294  41.94    287.68   3.50     0                        
S50              swmm_wet         j66              113.4728 35.47    232.94   2.18     0                        
S51              swmm_wet         j68              41.9241  50.97    128.87   2.81     0                        
S52              swmm_wet         j69              94.3120  2.15     221.05   2.57     0                        
S53              swmm_wet         j75              25.7480  16.94    108.18   3.33     0                        
S54              swmm_wet         j77              40.3802  45.65    104.40   3.13     0                        
S55              swmm_wet         j80              108.5240 57.71    222.81   2.98     0                        
S56              swmm_wet         j83              79.8684  3.37     236.08   4.22     0                        
S57              swmm_wet         j85              147.9950 33.88    190.73   2.21     0                        
S58              swmm_wet         j87              75.8030  12.31    259.11   2.86     0                        
S59              swmm_wet         j88              6.8701   0.00     63.72    4.88     0                        
S60              swmm_wet         j90              127.1102 41.26    187.13   3.18     0                        
S61              swmm_wet         j92              19.5039  70.13    83.86    3.40     0                        
S62              swmm_wet         j86              4.4085   11.36    42.37    4.50     0                        
S63              swmm_wet         j94              60.8105  60.72    162.56   2.86     0                        
S64              swmm_wet         j99              68.6669  40.12    141.29   2.41     0                        
S65              swmm_wet         j93              0.8234   0.00     26.36    11.36    0                        
S66              swmm_wet         j103             127.5304 45.98    162.95   3.19     0                        
S67              swmm_wet         j104             111.2343 46.69    189.91   2.58     0                        
S68              swmm_wet         j107             147.8492 32.30    212.77   3.63     0                        
S69              swmm_wet         j108             25.7394  13.13    116.49   4.53     0                        
S70              swmm_wet         j106             7.6849   5.13     76.82    4.56     0                        
S71              swmm_wet         j111             53.5630  23.85    186.29   3.13     0                        
S72              swmm_wet         j113             125.2147 38.87    182.31   2.98     0                        
S73              swmm_wet         j116             43.7166  26.99    167.98   3.67     0                        
S74              swmm_wet         j119             49.0343  29.55    170.28   2.88     0                        
S75              swmm_wet         j121             24.0411  21.08    136.21   3.49     0                        
S76              swmm_wet         j122             33.2442  11.31    146.64   3.43     0                        
S77              swmm_wet         j124             514.3245 44.47    320.42   5.46     0                        
S78              swmm_wet         j125             134.0832 49.25    254.64   3.79     0                        
S79              swmm_wet         j129             58.8378  19.78    175.68   3.81     0                        
S80              swmm_wet         j130             88.2481  30.36    226.47   2.51     0                        
S81              swmm_wet         j131             2.9848   45.68    38.12    5.48     0                        
S82              swmm_wet         j136             43.0648  51.16    146.36   3.28     0                        
S83              swmm_wet         j138             140.7132 50.45    262.90   2.94     0                        
S84              swmm_wet         j139             4.5801   47.57    49.79    3.32     0                        
S85              swmm_wet         j141             106.5427 55.04    245.47   2.96     0                        
S86              swmm_wet         j144             42.6016  55.96    158.15   4.44     0                        
S87              swmm_wet         j147             264.6327 33.09    271.74   2.02     0                        
S88              swmm_wet         j148             60.7247  46.96    161.92   2.57     0                        
S89              swmm_wet         j150             75.6829  34.31    180.20   4.01     0                        
S90              swmm_wet         j152             24.2899  23.75    100.20   4.24     0                        
S91              swmm_wet         j154             163.5621 43.50    284.31   5.09     0                        
S92              swmm_wet         j156             26.2883  43.43    92.69    5.09     0                        
S93              swmm_wet         j157             15.8159  32.61    98.33    5.33     0                        
S94              swmm_wet         j159             17.7199  34.10    78.14    2.78     0                        
S95              swmm_wet         j161             40.0629  59.60    115.56   2.29     0                        
S96              swmm_wet         j163             15.1126  36.59    89.21    4.68     0                        
S97              swmm_wet         j168             34.2992  14.16    154.60   3.94     0                        
S98              swmm_wet         j167             61.3251  21.93    183.45   3.68     0                        
S99              swmm_wet         j170             40.6289  19.82    122.13   3.52     0                        
S100             swmm_wet         j172             41.8812  19.53    133.12   3.53     0                        
S102             swmm_wet         j176             29.6333  17.08    79.37    4.04     0                        
S103             swmm_wet         j178             111.6974 50.96    207.74   2.66     0                        
S101             swmm_wet         j179             95.4441  52.87    212.17   3.57     0                        
S104             swmm_wet         j174             268.8526 37.86    267.66   2.48     0                        
S105             swmm_wet         j181             65.3477  57.33    165.10   2.45     0                        
S106             swmm_wet         j183             86.8243  53.44    202.51   2.54     0                        
S107             swmm_wet         j185             30.2508  12.29    86.51    3.07     0                        
S108             swmm_wet         j187             71.8233  33.84    160.10   2.94     0                        
S109             swmm_wet         j189             79.1308  45.61    237.99   2.30     0                        
S110             swmm_wet         j191             71.5316  41.92    167.19   1.91     0                        
S111             swmm_wet         j194             4.1427   47.91    49.66    3.36     0                        
S112             swmm_wet         j195             39.3939  40.67    141.22   1.76     0                        
S113             swmm_wet         j196             79.0107  42.32    213.44   2.55     0                        

[SUBAREAS]
;;Subcatchment   N-Imperv   N-Perv     S-Imperv   S-Perv     PctZero    RouteTo    PctRouted 
;;-------------- ---------- ---------- ---------- ---------- ---------- ---------- ----------
S1               0.013      0.15       2.54       5.08       17         OUTLET    
S2               0.013      0.15       2.54       5.08       17         OUTLET    
S3               0.013      0.15       2.54       5.08       17         OUTLET    
S4               0.013      0.15       2.54       5.08       17         OUTLET    
S5               0.013      0.15       2.54       5.08       17         OUTLET    
S6               0.013      0.15       2.54       5.08       17         OUTLET    
S7               0.013      0.15       2.54       5.08       17         OUTLET    
S8               0.013      0.15       2.54       5.08       17         OUTLET    
S9               0.013      0.15       2.54       5.08       17         OUTLET    
S10              0.013      0.15       2.54       5.08       17         OUTLET    
S11              0.013      0.15       2.54       5.08       17         OUTLET    
S12              0.013      0.15       2.54       5.08       17         OUTLET    
S13              0.013      0.15       2.54       5.08       17         OUTLET    
S14              0.013      0.15       2.54       5.08       17         OUTLET    
S15              0.013      0.15       2.54       5.08       17         OUTLET    
S16              0.013      0.15       2.54       5.08       17         OUTLET    
S17              0.013      0.15       2.54       5.08       17         OUTLET    
S18              0.013      0.15       2.54       5.08       17         OUTLET    
S19              0.013      0.15       2.54       5.08       17         OUTLET    
S20              0.013      0.15       2.54       5.08       17         OUTLET    
S21              0.013      0.15       2.54       5.08       17         OUTLET    
S22              0.013      0.15       2.54       5.08       17         OUTLET    
S23              0.013      0.15       2.54       5.08       17         OUTLET    
S24              0.013      0.15       2.54       5.08       17         OUTLET    
S25              0.013      0.15       2.54       5.08       17         OUTLET    
S26              0.013      0.15       2.54       5.08       17         OUTLET    
S27              0.013      0.15       2.54       5.08       17         OUTLET    
S28              0.013      0.15       2.54       5.08       17         OUTLET    
S29              0.013      0.15       2.54       5.08       17         OUTLET    
S30              0.013      0.15       2.54       5.08       17         OUTLET    
S31              0.013      0.15       2.54       5.08       17         OUTLET    
S32              0.013      0.15       2.54       5.08       17         OUTLET    
S33              0.013      0.15       2.54       5.08       17         OUTLET    
S34              0.013      0.15       2.54       5.08       17         OUTLET    
S35              0.013      0.15       2.54       5.08       17         OUTLET    
S36              0.013      0.15       2.54       5.08       17         OUTLET    
S37              0.013      0.15       2.54       5.08       17         OUTLET    
S38              0.013      0.15       2.54       5.08       17         OUTLET    
S39              0.013      0.15       2.54       5.08       17         OUTLET    
S40              0.013      0.15       2.54       5.08       17         OUTLET    
S41              0.013      0.15       2.54       5.08       17         OUTLET    
S42              0.013      0.15       2.54       5.08       17         OUTLET    
S43              0.013      0.15       2.54       5.08       17         OUTLET    
S44              0.013      0.15       2.54       5.08       17         OUTLET    
S45              0.013      0.15       2.54       5.08       17         OUTLET    
S46              0.013      0.15       2.54       5.08       17         OUTLET    
S47              0.013      0.15       2.54       5.08       17         OUTLET    
S48              0.013      0.15       2.54       5.08       17         OUTLET    
S49              0.013      0.15       2.54       5.08       17         OUTLET    
S50              0.013      0.15       2.54       5.08       17         OUTLET    
S51              0.013      0.15       2.54       5.08       17         OUTLET    
S52              0.013      0.15       2.54       5.08       17         OUTLET    
S53              0.013      0.15       2.54       5.08       17         OUTLET    
S54              0.013      0.15       2.54       5.08       17         OUTLET    
S55              0.013      0.15       2.54       5.08       17         OUTLET    
S56              0.013      0.15       2.54       5.08       17         OUTLET    
S57              0.013      0.15       2.54       5.08       17         OUTLET    
S58              0.013      0.15       2.54       5.08       17         OUTLET    
S59              0.013      0.15       2.54       5.08       17         OUTLET    
S60              0.013      0.15       2.54       5.08       17         OUTLET    
S61              0.013      0.15       2.54       5.08       17         OUTLET    
S62              0.013      0.15       2.54       5.08       17         OUTLET    
S63              0.013      0.15       2.54       5.08       17         OUTLET    
S64              0.013      0.15       2.54       5.08       17         OUTLET    
S65              0.013      0.15       2.54       5.08       17         OUTLET    
S66              0.013      0.15       2.54       5.08       17         OUTLET    
S67              0.013      0.15       2.54       5.08       17         OUTLET    
S68              0.013      0.15       2.54       5.08       17         OUTLET    
S69              0.013      0.15       2.54       5.08       17         OUTLET    
S70              0.013      0.15       2.54       5.08       17         OUTLET    
S71              0.013      0.15       2.54       5.08       17         OUTLET    
S72              0.013      0.15       2.54       5.08       17         OUTLET    
S73              0.013      0.15       2.54       5.08       17         OUTLET    
S74              0.013      0.15       2.54       5.08       17         OUTLET    
S75              0.013      0.15       2.54       5.08       17         OUTLET    
S76              0.013      0.15       2.54       5.08       17         OUTLET    
S77              0.013      0.15       2.54       5.08       17         OUTLET    
S78              0.013      0.15       2.54       5.08       17         OUTLET    
S79              0.013      0.15       2.54       5.08       17         OUTLET    
S80              0.013      0.15       2.54       5.08       17         OUTLET    
S81              0.013      0.15       2.54       5.08       17         OUTLET    
S82              0.013      0.15       2.54       5.08       17         OUTLET    
S83              0.013      0.15       2.54       5.08       17         OUTLET    
S84              0.013      0.15       2.54       5.08       17         OUTLET    
S85              0.013      0.15       2.54       5.08       17         OUTLET    
S86              0.013      0.15       2.54       5.08       17         OUTLET    
S87              0.013      0.15       2.54       5.08       17         OUTLET    
S88              0.013      0.15       2.54       5.08       17         OUTLET    
S89              0.013      0.15       2.54       5.08       17         OUTLET    
S90              0.013      0.15       2.54       5.08       17         OUTLET    
S91              0.013      0.15       2.54       5.08       17         OUTLET    
S92              0.013      0.15       2.54       5.08       17         OUTLET    
S93              0.013      0.15       2.54       5.08       17         OUTLET    
S94              0.013      0.15       2.54       5.08       17         OUTLET    
S95              0.013      0.15       2.54       5.08       17         OUTLET    
S96              0.013      0.15       2.54       5.08       17         OUTLET    
S97              0.013      0.15       2.54       5.08       17         OUTLET    
S98              0.013      0.15       2.54       5.08       17         OUTLET    
S99              0.013      0.15       2.54       5.08       17         OUTLET    
S100             0.013      0.15       2.54       5.08       17         OUTLET    
S102             0.013      0.15       2.54       5.08       17         OUTLET    
S103             0.013      0.15       2.54       5.08       17         OUTLET    
S101             0.013      0.15       2.54       5.08       17         OUTLET    
S104             0.013      0.15       2.54       5.08       17         OUTLET    
S105             0.013      0.15       2.54       5.08       17         OUTLET    
S106             0.013      0.15       2.54       5.08       17         OUTLET    
S107             0.013      0.15       2.54       5.08       17         OUTLET    
S108             0.013      0.15       2.54       5.08       17         OUTLET    
S109             0.013      0.15       2.54       5.08       17         OUTLET    
S110             0.013      0.15       2.54       5.08       17         OUTLET    
S111             0.013      0.15       2.54       5.08       17         OUTLET    
S112             0.013      0.15       2.54       5.08       17         OUTLET    
S113             0.013      0.15       2.54       5.08       17         OUTLET    

[INFILTRATION]
;;Subcatchment   MaxRate    MinRate    Decay      DryTime    MaxInfil  
;;-------------- ---------- ---------- ---------- ---------- ----------
S1               79         1.3        4.14       7          0         
S2               79         1.3        4.14       7          0         
S3               79         1.3        4.14       7          0         
S4               79         1.3        4.14       7          0         
S5               79         1.3        4.14       7          0         
S6               79         1.3        4.14       7          0         
S7               79         1.3        4.14       7          0         
S8               79         1.3        4.14       7          0         
S9               79         1.3        4.14       7          0         
S10              79         1.3        4.14       7          0         
S11              79         1.3        4.14       7          0         
S12              79         1.3        4.14       7          0         
S13              79         1.3        4.14       7          0         
S14              79         1.3        4.14       7          0         
S15              79         1.3        4.14       7          0         
S16              79         1.3        4.14       7          0         
S17              79         1.3        4.14       7          0         
S18              79         1.3        4.14       7          0         
S19              79         1.3        4.14       7          0         
S20              79         1.3        4.14       7          0         
S21              79         1.3        4.14       7          0         
S22              79         1.3        4.14       7          0         
S23              79         1.3        4.14       7          0         
S24              79         1.3        4.14       7          0         
S25              79         1.3        4.14       7          0         
S26              79         1.3        4.14       7          0         
S27              79         1.3        4.14       7          0         
S28              79         1.3        4.14       7          0         
S29              79         1.3        4.14       7          0         
S30              79         1.3        4.14       7          0         
S31              79         1.3        4.14       7          0         
S32              79         1.3        4.14       7          0         
S33              79         1.3        4.14       7          0         
S34              79         1.3        4.14       7          0         
S35              79         1.3        4.14       7          0         
S36              79         1.3        4.14       7          0         
S37              79         1.3        4.14       7          0         
S38              79         1.3        4.14       7          0         
S39              79         1.3        4.14       7          0         
S40              79         1.3        4.14       7          0         
S41              79         1.3        4.14       7          0         
S42              79         1.3        4.14       7          0         
S43              79         1.3        4.14       7          0         
S44              79         1.3        4.14       7          0         
S45              79         1.3        4.14       7          0         
S46              79         1.3        4.14       7          0         
S47              79         1.3        4.14       7          0         
S48              79         1.3        4.14       7          0         
S49              79         1.3        4.14       7          0         
S50              79         1.3        4.14       7          0         
S51              79         1.3        4.14       7          0         
S52              79         1.3        4.14       7          0         
S53              79         1.3        4.14       7          0         
S54              79         1.3        4.14       7          0         
S55              79         1.3        4.14       7          0         
S56              79         1.3        4.14       7          0         
S57              79         1.3        4.14       7          0         
S58              79         1.3        4.14       7          0         
S59              79         1.3        4.14       7          0         
S60              79         1.3        4.14       7          0         
S61              79         1.3        4.14       7          0         
S62              79         1.3        4.14       7          0         
S63              79         1.3        4.14       7          0         
S64              79         1.3        4.14       7          0         
S65              79         1.3        4.14       7          0         
S66              79         1.3        4.14       7          0         
S67              79         1.3        4.14       7          0         
S68              79         1.3        4.14       7          0         
S69              79         1.3        4.14       7          0         
S70              79         1.3        4.14       7          0         
S71              79         1.3        4.14       7          0         
S72              79         1.3        4.14       7          0         
S73              79         1.3        4.14       7          0         
S74              79         1.3        4.14       7          0         
S75              79         1.3        4.14       7          0         
S76              79         1.3        4.14       7          0         
S77              79         1.3        4.14       7          0         
S78              79         1.3        4.14       7          0         
S79              79         1.3        4.14       7          0         
S80              79         1.3        4.14       7          0         